<?xml version="1.0" encoding="UTF-8"?>

<!-- generated on 2026-05-03 12:13:57.331958 by Eclipse SUMO osmWebWizard.py v1_26_0+1000-c71e510aa5d
  options: 
-->

<additional xmlns:xsi="http://www.w3.org/2001/XMLSchema-instance" xsi:noNamespaceSchemaLocation="http://sumo.dlr.de/xsd/additional_file.xsd">
   <edgeData id="wizard_example" period="3600" file="edgeData.xml"/>
</additional>
