<<<<<<< HEAD
<?xml version="1.0" encoding="UTF-8"?>

<!-- generated on 2026-05-29T14:59:47.252696+03:00 by Eclipse SUMO netedit 1.26.0
-->

<additional xmlns:xsi="http://www.w3.org/2001/XMLSchema-instance" xsi:noNamespaceSchemaLocation="http://sumo.dlr.de/xsd/additional_file.xsd">
    <!-- MeanDataEdges -->
    <edgeData id="wizard_example" file="edgeData.xml" period="3600.00"/>
</additional>
=======
<?xml version="1.0" encoding="UTF-8"?>

<!-- generated on 2026-05-28T09:39:23.659796+03:00 by Eclipse SUMO netedit v1_26_0+1000-c71e510aa5d
-->

<additional xmlns:xsi="http://www.w3.org/2001/XMLSchema-instance" xsi:noNamespaceSchemaLocation="http://sumo.dlr.de/xsd/additional_file.xsd">
    <!-- MeanDataEdges -->
    <edgeData id="wizard_example" file="edgeData.xml" period="3600.00"/>
</additional>
>>>>>>> 82744a08b22362240f6abef2a53a2a518ab366a8
